Version 4
SHEET 1 2224 1392
WIRE -32 48 -128 48
WIRE 112 48 32 48
WIRE 224 48 176 48
WIRE -128 144 -128 48
WIRE -32 144 -128 144
WIRE 64 144 32 144
WIRE 224 144 224 48
WIRE 224 144 144 144
WIRE 560 144 368 144
WIRE 752 144 624 144
WIRE 912 144 816 144
WIRE 1008 144 912 144
WIRE 1248 144 1008 144
WIRE 1760 144 1248 144
WIRE 1920 144 1760 144
WIRE 368 160 368 144
WIRE -1296 224 -1520 224
WIRE -1168 224 -1296 224
WIRE -1040 224 -1168 224
WIRE -400 224 -1040 224
WIRE -128 224 -128 144
WIRE -128 224 -400 224
WIRE 176 224 -128 224
WIRE 1248 224 1248 144
WIRE -1296 256 -1296 224
WIRE 176 256 176 224
WIRE 1760 256 1760 144
WIRE -128 272 -128 224
WIRE 368 320 368 240
WIRE 912 320 912 144
WIRE 1008 320 1008 144
WIRE 1920 352 1920 144
WIRE -1296 368 -1296 336
WIRE -1168 368 -1168 224
WIRE -128 368 -128 336
WIRE 176 384 176 336
WIRE 224 384 224 144
WIRE 224 384 176 384
WIRE -48 416 -224 416
WIRE 80 416 -48 416
WIRE 176 416 176 384
WIRE -1520 432 -1520 224
WIRE -1504 432 -1520 432
WIRE -1392 432 -1424 432
WIRE -1008 432 -1072 432
WIRE -848 432 -928 432
WIRE 1760 432 1760 336
WIRE 1872 432 1760 432
WIRE -848 448 -848 432
WIRE -784 448 -848 448
WIRE -720 448 -784 448
WIRE 1168 448 1136 448
WIRE 1248 448 1248 304
WIRE 1248 448 1168 448
WIRE 1920 448 1872 448
WIRE 2048 448 1920 448
WIRE -48 464 -48 416
WIRE 80 464 -48 464
WIRE -400 480 -400 224
WIRE -224 480 -224 416
WIRE 1760 480 1760 432
WIRE 1920 480 1920 448
WIRE -32 496 -80 496
WIRE 0 496 -32 496
WIRE 128 496 0 496
WIRE 2048 512 2048 448
WIRE -1520 528 -1520 432
WIRE -1504 528 -1520 528
WIRE -1392 528 -1424 528
WIRE -1008 528 -1072 528
WIRE -848 528 -848 448
WIRE -848 528 -928 528
WIRE 1872 528 1872 448
WIRE 1872 528 1824 528
WIRE 0 544 0 496
WIRE 1248 544 1248 448
WIRE 176 560 176 512
WIRE 176 560 112 560
WIRE 176 592 176 560
WIRE 1760 608 1760 576
WIRE 1920 608 1920 560
WIRE 2048 608 2048 576
WIRE -1520 624 -1520 528
WIRE -1504 624 -1520 624
WIRE -1392 624 -1424 624
WIRE -976 624 -1072 624
WIRE -832 624 -896 624
WIRE -768 624 -832 624
WIRE -688 624 -768 624
WIRE 1248 640 1248 624
WIRE 112 688 112 560
WIRE 112 688 -896 688
WIRE -1520 720 -1520 624
WIRE -1504 720 -1520 720
WIRE -1392 720 -1424 720
WIRE -1040 720 -1040 224
WIRE -1040 720 -1072 720
WIRE -832 752 -832 624
WIRE 1248 752 1248 720
WIRE -1520 816 -1520 720
WIRE -1392 816 -1520 816
WIRE -896 816 -896 688
WIRE -896 816 -1072 816
WIRE -832 848 -832 816
WIRE -1392 912 -1488 912
WIRE -992 912 -1072 912
WIRE -992 1008 -1072 1008
WIRE -832 1008 -992 1008
WIRE -832 1040 -832 1008
WIRE -976 1104 -1072 1104
WIRE -832 1136 -832 1104
WIRE -976 1168 -976 1104
WIRE -1232 1280 -1232 1168
WIRE -976 1280 -976 1248
WIRE -976 1280 -1232 1280
WIRE -1232 1312 -1232 1280
FLAG 368 320 0
FLAG 912 384 0
FLAG 1008 384 0
FLAG 176 672 0
FLAG 1760 608 0
FLAG -400 560 0
FLAG -128 368 0
FLAG -224 560 0
FLAG -32 496 Gate
FLAG 1248 752 0
FLAG 1168 448 FB
FLAG 0 624 0
FLAG -768 624 Gate
FLAG -992 912 0
FLAG -992 1008 FB
FLAG 224 384 Drain
FLAG -784 448 Drain
FLAG -1232 1312 0
FLAG -1488 912 0
FLAG -832 848 0
FLAG -832 1136 0
FLAG 1920 608 0
FLAG 2048 608 0
SYMBOL ind2 160 240 R0
SYMATTR InstName L1
SYMATTR Value 5µ
SYMATTR Type ind
SYMATTR SpiceLine Ipk=18 Rser=10m
SYMBOL ind2 384 256 R180
WINDOW 0 36 80 Left 2
WINDOW 3 36 40 Left 2
SYMATTR InstName L2
SYMATTR Value 500µ
SYMATTR Type ind
SYMATTR SpiceLine Rser=.15
SYMBOL diode 752 160 R270
WINDOW 0 32 32 VTop 2
WINDOW 3 -30 42 VTop 2
SYMATTR InstName D1
SYMATTR Value PNE20020EP
SYMATTR Prefix X
SYMBOL cap 896 320 R0
SYMATTR InstName C1
SYMATTR Value 100n
SYMBOL cap 992 320 R0
SYMATTR InstName C2
SYMATTR Value 10µ
SYMBOL res 160 576 R0
SYMATTR InstName R1
SYMATTR Value 6m
SYMBOL voltage -400 464 R0
WINDOW 123 0 0 Left 0
WINDOW 39 0 0 Left 0
SYMATTR InstName V2
SYMATTR Value 24
SYMBOL cap 32 128 R90
WINDOW 0 0 32 VBottom 2
WINDOW 3 32 32 VTop 2
SYMATTR InstName C3
SYMATTR Value 2.2n
SYMBOL diode 32 32 R90
WINDOW 0 0 32 VBottom 2
WINDOW 3 32 32 VTop 2
SYMATTR InstName D2
SYMATTR Value PNE20020EP
SYMATTR Prefix X
SYMBOL zener 112 64 R270
WINDOW 0 36 32 VTop 2
WINDOW 3 -4 32 VBottom 2
SYMATTR InstName D3
SYMATTR Value 1N5378B
SYMATTR Description Diode
SYMATTR Type diode
SYMBOL res 160 128 R90
WINDOW 0 0 56 VBottom 2
WINDOW 3 32 56 VTop 2
SYMATTR InstName R3
SYMATTR Value 100
SYMBOL diode 560 160 R270
WINDOW 0 32 32 VTop 2
WINDOW 3 -30 42 VTop 2
SYMATTR InstName D4
SYMATTR Value PNE20020EP
SYMATTR Prefix X
SYMBOL nmos_Infineon 128 416 R0
SYMATTR InstName M1
SYMATTR Value IPB107N20N3
SYMATTR Prefix X
SYMBOL cap -144 272 R0
SYMATTR InstName C4
SYMATTR Value 47µ
SYMBOL voltage -224 464 R0
WINDOW 123 0 0 Left 0
WINDOW 39 0 0 Left 0
SYMATTR InstName V3
SYMATTR Value 24
SYMBOL res 1232 208 R0
SYMATTR InstName R5
SYMATTR Value 240k
SYMBOL res 1232 528 R0
SYMATTR InstName R6
SYMATTR Value 960
SYMBOL res -16 528 R0
SYMATTR InstName R12
SYMATTR Value 200k
SYMBOL PowerProducts\\LT3751 -1232 768 R0
SYMATTR InstName U1
SYMBOL res -912 416 R90
WINDOW 0 0 56 VBottom 2
WINDOW 3 32 56 VTop 2
SYMATTR InstName R4
SYMATTR Value 18k
SYMBOL res -912 512 R90
WINDOW 0 0 56 VBottom 2
WINDOW 3 32 56 VTop 2
SYMATTR InstName R7
SYMATTR Value 40k
SYMBOL res -1312 240 R0
SYMATTR InstName R8
SYMATTR Value 40k
SYMBOL res -992 1152 R0
SYMATTR InstName R9
SYMATTR Value 1.1k
SYMBOL res -1408 416 R90
WINDOW 0 0 56 VBottom 2
WINDOW 3 32 56 VTop 2
SYMATTR InstName R10
SYMATTR Value 70k
SYMBOL res -1408 512 R90
WINDOW 0 0 56 VBottom 2
WINDOW 3 32 56 VTop 2
SYMATTR InstName R11
SYMATTR Value 475k
SYMBOL res -1408 608 R90
WINDOW 0 0 56 VBottom 2
WINDOW 3 32 56 VTop 2
SYMATTR InstName R13
SYMATTR Value 70k
SYMBOL res -1408 704 R90
WINDOW 0 0 56 VBottom 2
WINDOW 3 32 56 VTop 2
SYMATTR InstName R14
SYMATTR Value 475k
SYMBOL res -880 608 R90
WINDOW 0 0 56 VBottom 2
WINDOW 3 32 56 VTop 2
SYMATTR InstName R15
SYMATTR Value 10
SYMBOL res 1232 624 R0
SYMATTR InstName R16
SYMATTR Value 633
SYMBOL cap -848 752 R0
SYMATTR InstName C5
SYMATTR Value 330p
SYMBOL cap -848 1040 R0
SYMATTR InstName C6
SYMATTR Value 330p
SYMBOL nmos 1872 352 R0
SYMATTR InstName M2
SYMATTR Value IXFX90N30
SYMBOL res 1904 464 R0
SYMATTR InstName R2
SYMATTR Value 6.5
SYMBOL npn 1824 480 M0
SYMATTR InstName Q1
SYMATTR Value BC847C
SYMBOL res 1744 240 R0
SYMATTR InstName R17
SYMATTR Value 10k
SYMBOL cap 2032 512 R0
SYMATTR InstName C7
SYMATTR Value 1µ
TEXT 96 -96 Left 2 !K1 L1 L2  0.98
TEXT -432 864 Left 2 !.lib PNE20020EP.cir
TEXT -432 896 Left 2 !.lib OptiMOS3_200V_LTSpice.lib
TEXT -432 792 Left 2 !.tran 4m startup
TEXT 1344 688 Left 2 ;5k Digipoti
TEXT 1344 728 Left 2 ;50-300V Regelbar
TEXT 96 -64 Left 2 ;K1 = WE 750310349
TEXT -1376 1376 Left 2 ;alt. TI LM34966-Q1
TEXT 1752 656 Left 2 ;100mA konst. Strom als Last-Simulation
TEXT 1312 792 Left 2 ;akt. 185V
TEXT -216 432 Left 2 ;nur für SIM
