Version 4
SHEET 1 976 712
WIRE 16 32 -32 32
WIRE 224 32 96 32
WIRE -32 144 -32 32
WIRE 64 144 32 144
WIRE 224 144 224 32
WIRE 224 144 144 144
WIRE 416 144 320 144
WIRE 448 144 416 144
WIRE 544 144 512 144
WIRE 704 144 608 144
WIRE 800 144 704 144
WIRE 896 144 800 144
WIRE 320 160 320 144
WIRE 416 192 416 144
WIRE -64 224 -400 224
WIRE 176 224 -64 224
WIRE 896 224 896 144
WIRE -64 256 -64 224
WIRE 176 256 176 224
WIRE 320 272 320 240
WIRE -32 320 -32 144
WIRE -32 320 -64 320
WIRE 704 320 704 144
WIRE 800 320 800 144
WIRE -64 352 -64 320
WIRE -64 368 -64 352
WIRE 176 384 176 336
WIRE 176 384 48 384
WIRE 224 384 224 144
WIRE 224 384 176 384
WIRE 896 384 896 304
WIRE 176 416 176 384
WIRE -64 448 -64 416
WIRE 48 448 48 384
WIRE 48 448 -64 448
WIRE -400 480 -400 224
WIRE 128 496 -80 496
WIRE -80 576 -80 496
WIRE 176 592 176 512
FLAG 320 272 0
FLAG 704 384 0
FLAG 800 384 0
FLAG 176 672 0
FLAG 896 384 0
FLAG -400 560 0
FLAG -80 656 0
FLAG 416 256 0
SYMBOL ind2 192 352 R180
WINDOW 0 36 80 Left 2
WINDOW 3 36 40 Left 2
SYMATTR InstName L1
SYMATTR Value 37µ
SYMATTR Type ind
SYMATTR SpiceLine Ipk=3 Rser=344m
SYMBOL ind2 304 144 R0
SYMATTR InstName L2
SYMATTR Value 925µ
SYMATTR Type ind
SYMATTR SpiceLine Ipk=100m Rser=5
SYMBOL diode 544 160 R270
WINDOW 0 32 32 VTop 2
WINDOW 3 0 32 VBottom 2
SYMATTR InstName D1
SYMATTR Value RR2L6S
SYMBOL cap 688 320 R0
SYMATTR InstName C1
SYMATTR Value 100n
SYMBOL cap 784 320 R0
SYMATTR InstName C2
SYMATTR Value 10µ
SYMBOL nmos 128 416 R0
SYMATTR InstName M1
SYMATTR Value IPB320N20N3
SYMBOL res 160 576 R0
SYMATTR InstName R1
SYMATTR Value 25m
SYMBOL voltage -80 560 R0
WINDOW 123 0 0 Left 0
WINDOW 39 0 0 Left 0
SYMATTR InstName V1
SYMATTR Value PULSE(0 8 5m 25n 25n 1u 2u)
SYMBOL voltage -400 464 R0
WINDOW 123 0 0 Left 0
WINDOW 39 0 0 Left 0
SYMATTR InstName V2
SYMATTR Value 60
SYMBOL res 880 208 R0
SYMATTR InstName R2
SYMATTR Value 100k
SYMBOL cap 32 128 R90
WINDOW 0 0 32 VBottom 2
WINDOW 3 32 32 VTop 2
SYMATTR InstName C3
SYMATTR Value 220n
SYMBOL diode -48 320 R180
WINDOW 0 24 64 Left 2
WINDOW 3 24 0 Left 2
SYMATTR InstName D2
SYMATTR Value 1N914
SYMBOL zener -80 352 R0
SYMATTR InstName D3
SYMATTR Value 1N5378B
SYMATTR Description Diode
SYMATTR Type diode
SYMBOL res 160 128 R90
WINDOW 0 0 56 VBottom 2
WINDOW 3 32 56 VTop 2
SYMATTR InstName R3
SYMATTR Value 15
SYMBOL diode 448 160 R270
WINDOW 0 32 32 VTop 2
WINDOW 3 0 32 VBottom 2
SYMATTR InstName D4
SYMATTR Value RR2L6S
SYMBOL cap 400 192 R0
SYMATTR InstName C4
SYMATTR Value 470p
SYMBOL res 112 16 R90
WINDOW 0 0 56 VBottom 2
WINDOW 3 32 56 VTop 2
SYMATTR InstName R4
SYMATTR Value 10k
TEXT 96 -96 Left 2 !K1 L1 L2 0.995
TEXT -434 696 Left 2 !.tran 50m startup
